25

C          0.98692       -0.00154       -0.00478
N          2.42855       -0.11286        0.02967
C          3.27355        0.96670        0.13322
C          4.56591        0.49906        0.13196
C          4.49447       -0.90775        0.01397
C          3.16147       -1.28369       -0.05993
N          2.63436       -2.52334       -0.25213
N          1.61636       -2.81233        0.41164
C          1.21790       -4.13992        0.16208
C          2.05355       -5.22368        0.46476
C          1.62111       -6.53644        0.26762
C          0.34132       -6.78086       -0.22587
C         -0.50329       -5.71183       -0.52785
C         -0.06647       -4.39860       -0.33089
H          0.70505        1.05214       -0.07833
H          0.58655       -0.41675        0.92361
H          0.61051       -0.54062       -0.87758
H          2.88881        1.97661        0.19407
H          5.46073        1.10496        0.19600
H          5.33045       -1.59334       -0.03038
H          3.04779       -5.03655        0.86232
H          2.28243       -7.36585        0.50677
H          0.00270       -7.80272       -0.37557
H         -1.50262       -5.90047       -0.91122
H         -0.73246       -3.57167       -0.56196
