e_3d.mol
  ChemDraw02062316143D

 17 18  0  0  0  0  0  0  0  0999 V2000
    5.7908    0.5055    0.0292 C   0  0  0  0  0  0  0  0  0  0  0  0
    4.4151   -0.3902   -0.4105 C   0  0  0  0  0  0  0  0  0  0  0  0
    4.4580   -1.7940   -1.0542 N   0  0  0  0  0  0  0  0  0  0  0  0
    3.1081   -2.3200   -1.0393 O   0  0  0  0  0  0  0  0  0  0  0  0
    2.1766   -1.3706   -0.3880 C   0  0  0  0  0  0  0  0  0  0  0  0
    0.6611   -1.9034    0.1678 C   0  0  0  0  0  0  0  0  0  0  0  0
    2.9157    0.0024   -0.1253 C   0  0  0  0  0  0  0  0  0  0  0  0
    2.4742    1.4765    0.3788 N   0  0  0  0  0  0  0  0  0  0  0  0
    1.4746    2.2549   -0.2717 N   0  0  0  0  0  0  0  0  0  0  0  0
   -0.0914    1.8651   -0.1430 C   0  0  0  0  0  0  0  0  0  0  0  0
   -0.5698    1.0210    1.1034 C   0  0  0  0  0  0  0  0  0  0  0  0
   -2.0607    0.5189    1.2126 C   0  0  0  0  0  0  0  0  0  0  0  0
   -3.0607    0.8280    0.0374 C   0  0  0  0  0  0  0  0  0  0  0  0
   -4.5310    0.1571    0.0630 N   0  0  0  0  0  0  0  0  0  0  0  0
   -5.7908    0.9065   -0.6933 C   0  0  0  0  0  0  0  0  0  0  0  0
   -2.6396    1.7858   -1.1377 C   0  0  0  0  0  0  0  0  0  0  0  0
   -1.1602    2.3200   -1.2126 C   0  0  0  0  0  0  0  0  0  0  0  0
  1  2  1  0      
  2  3  2  0      
  3  4  1  0      
  4  5  1  0      
  5  6  1  0      
  5  7  2  0      
  2  7  1  0      
  7  8  1  0      
  8  9  2  0      
  9 10  1  0      
 10 11  2  0      
 11 12  1  0      
 12 13  2  0      
 13 14  1  0      
 14 15  1  0      
 13 16  1  0      
 16 17  2  0      
 10 17  1  0      
M  END
