z_3d.mol
  ChemDraw02062316163D

 17 18  0  0  0  0  0  0  0  0999 V2000
    5.7884    0.5125    0.0253 C   0  0  0  0  0  0  0  0  0  0  0  0
    4.4130   -0.3842   -0.4154 C   0  0  0  0  0  0  0  0  0  0  0  0
    4.4535   -1.7911   -1.0516 N   0  0  0  0  0  0  0  0  0  0  0  0
    3.1043   -2.3169   -1.0433 O   0  0  0  0  0  0  0  0  0  0  0  0
    2.1749   -1.3670   -0.3921 C   0  0  0  0  0  0  0  0  0  0  0  0
    0.6610   -1.8968    0.1661 C   0  0  0  0  0  0  0  0  0  0  0  0
    2.9131    0.0043   -0.1237 C   0  0  0  0  0  0  0  0  0  0  0  0
    2.4737    1.4803    0.3756 N   0  0  0  0  0  0  0  0  0  0  0  0
    1.4755    2.2606   -0.2731 N   0  0  0  0  0  0  0  0  0  0  0  0
   -0.0885    1.8666   -0.1446 C   0  0  0  0  0  0  0  0  0  0  0  0
   -0.5676    1.0221    1.1010 C   0  0  0  0  0  0  0  0  0  0  0  0
   -2.0606    0.5263    1.2135 C   0  0  0  0  0  0  0  0  0  0  0  0
   -3.0622    0.8388    0.0402 C   0  0  0  0  0  0  0  0  0  0  0  0
   -4.5283    0.1595    0.0564 N   0  0  0  0  0  0  0  0  0  0  0  0
   -5.7884    0.9107   -0.6949 C   0  0  0  0  0  0  0  0  0  0  0  0
   -2.6404    1.7859   -1.1426 C   0  0  0  0  0  0  0  0  0  0  0  0
   -1.1598    2.3169   -1.2135 C   0  0  0  0  0  0  0  0  0  0  0  0
  1  2  1  0      
  2  3  2  0      
  3  4  1  0      
  4  5  1  0      
  5  6  1  0      
  5  7  2  0      
  2  7  1  0      
  7  8  1  0      
  8  9  2  0      
  9 10  1  0      
 10 11  2  0      
 11 12  1  0      
 12 13  2  0      
 13 14  1  0      
 14 15  1  0      
 13 16  1  0      
 16 17  2  0      
 10 17  1  0      
M  END
