e_3d.mol
  ChemDraw02062316263D

 17 18  0  0  0  0  0  0  0  0999 V2000
    4.9734   -1.9775    1.4462 C   0  0  0  0  0  0  0  0  0  0  0  0
    4.6670   -0.4007    1.1630 C   0  0  0  0  0  0  0  0  0  0  0  0
    3.3473    0.2041    0.7386 C   0  0  0  0  0  0  0  0  0  0  0  0
    3.6114    1.6891    0.6160 C   0  0  0  0  0  0  0  0  0  0  0  0
    2.5348    2.8359    0.1847 C   0  0  0  0  0  0  0  0  0  0  0  0
    5.0297    1.9600    0.9537 N   0  0  0  0  0  0  0  0  0  0  0  0
    5.6594    0.6939    1.2830 N   0  0  0  0  0  0  0  0  0  0  0  0
    2.0126   -0.5455    0.4841 N   0  0  0  0  0  0  0  0  0  0  0  0
    0.9007    0.1476    0.1022 N   0  0  0  0  0  0  0  0  0  0  0  0
   -0.4336   -0.6021   -0.1536 C   0  0  0  0  0  0  0  0  0  0  0  0
   -0.5054   -2.1044    0.0231 C   0  0  0  0  0  0  0  0  0  0  0  0
   -1.8074   -2.8345   -0.2301 C   0  0  0  0  0  0  0  0  0  0  0  0
   -3.0384   -2.0657   -0.6613 C   0  0  0  0  0  0  0  0  0  0  0  0
   -4.3607   -2.8359   -0.9198 N   0  0  0  0  0  0  0  0  0  0  0  0
   -5.6594   -2.1006   -1.4462 C   0  0  0  0  0  0  0  0  0  0  0  0
   -2.9659   -0.5626   -0.8318 C   0  0  0  0  0  0  0  0  0  0  0  0
   -1.6646    0.1691   -0.5805 C   0  0  0  0  0  0  0  0  0  0  0  0
  1  2  1  0      
  2  3  2  0      
  3  4  1  0      
  4  5  1  0      
  4  6  2  0      
  6  7  1  0      
  2  7  1  0      
  3  8  1  0      
  8  9  2  0      
  9 10  1  0      
 10 11  2  0      
 11 12  1  0      
 12 13  2  0      
 13 14  1  0      
 14 15  1  0      
 13 16  1  0      
 16 17  2  0      
 10 17  1  0      
M  END
