e_3d.mol
  ChemDraw02062316323D

 17 18  0  0  0  0  0  0  0  0999 V2000
   -2.8230    2.4242   -1.3339 C   0  0  0  0  0  0  0  0  0  0  0  0
   -3.6691    1.6066   -0.2279 C   0  0  0  0  0  0  0  0  0  0  0  0
   -3.2853    0.2819    0.3507 C   0  0  0  0  0  0  0  0  0  0  0  0
   -4.5414   -0.2133    0.9968 C   0  0  0  0  0  0  0  0  0  0  0  0
   -4.7693   -1.7088    1.5555 C   0  0  0  0  0  0  0  0  0  0  0  0
   -5.5639    0.8390    0.9665 N   0  0  0  0  0  0  0  0  0  0  0  0
   -5.0226    1.9474    0.2261 N   0  0  0  0  0  0  0  0  0  0  0  0
   -1.9121   -0.4061    0.2939 N   0  0  0  0  0  0  0  0  0  0  0  0
   -0.7860    0.3235    0.1524 N   0  0  0  0  0  0  0  0  0  0  0  0
    0.5692   -0.3903    0.0708 C   0  0  0  0  0  0  0  0  0  0  0  0
    1.7660    0.3136   -0.4927 C   0  0  0  0  0  0  0  0  0  0  0  0
    3.1192   -0.3355   -0.4591 C   0  0  0  0  0  0  0  0  0  0  0  0
    4.3209    0.3591   -1.1114 N   0  0  0  0  0  0  0  0  0  0  0  0
    5.5639   -0.4855   -1.5555 C   0  0  0  0  0  0  0  0  0  0  0  0
    3.2776   -1.6948    0.1548 C   0  0  0  0  0  0  0  0  0  0  0  0
    2.0726   -2.4242    0.6686 C   0  0  0  0  0  0  0  0  0  0  0  0
    0.7190   -1.7833    0.6013 C   0  0  0  0  0  0  0  0  0  0  0  0
  1  2  1  0      
  2  3  2  0      
  3  4  1  0      
  4  5  1  0      
  4  6  2  0      
  6  7  1  0      
  2  7  1  0      
  3  8  1  0      
  8  9  2  0      
  9 10  1  0      
 10 11  2  0      
 11 12  1  0      
 12 13  1  0      
 13 14  1  0      
 12 15  2  0      
 15 16  1  0      
 16 17  2  0      
 10 17  1  0      
M  END
