z.mol
  ChemDraw02082315463D

 16 17  0  0  0  0  0  0  0  0999 V2000
   -1.2646    3.0698   -1.8491 F   0  0  0  0  0  0  0  0  0  0  0  0
   -2.0376    2.2811   -0.5984 C   0  0  0  0  0  0  0  0  0  0  0  0
   -3.6639    2.0656   -0.7876 C   0  0  0  0  0  0  0  0  0  0  0  0
   -4.3961    0.9986    0.2366 C   0  0  0  0  0  0  0  0  0  0  0  0
   -3.5597    0.3572    1.5135 C   0  0  0  0  0  0  0  0  0  0  0  0
   -2.0214    0.8552    1.8491 C   0  0  0  0  0  0  0  0  0  0  0  0
   -1.1979    1.7346    0.7213 C   0  0  0  0  0  0  0  0  0  0  0  0
    0.4166    2.1701    0.9970 N   0  0  0  0  0  0  0  0  0  0  0  0
    1.5362    1.2205    1.2539 N   0  0  0  0  0  0  0  0  0  0  0  0
    1.8111   -0.2580    0.4707 C   0  0  0  0  0  0  0  0  0  0  0  0
    3.3393   -0.4464   -0.1305 C   0  0  0  0  0  0  0  0  0  0  0  0
    4.3961    0.8636   -0.1017 N   0  0  0  0  0  0  0  0  0  0  0  0
    3.8682   -1.8723   -0.7671 C   0  0  0  0  0  0  0  0  0  0  0  0
    2.7498   -3.0698   -0.9800 C   0  0  0  0  0  0  0  0  0  0  0  0
    1.1737   -2.8804   -0.5182 C   0  0  0  0  0  0  0  0  0  0  0  0
    0.7485   -1.5183    0.3127 C   0  0  0  0  0  0  0  0  0  0  0  0
  1  2  1  0      
  2  3  2  0      
  3  4  1  0      
  4  5  2  0      
  5  6  1  0      
  6  7  2  0      
  2  7  1  0      
  7  8  1  0      
  8  9  2  0      
  9 10  1  0      
 10 11  2  0      
 11 12  1  0      
 11 13  1  0      
 13 14  2  0      
 14 15  1  0      
 15 16  2  0      
 10 16  1  0      
M  END
