e_3d.mol
  ChemDraw02062316293D

 14 15  0  0  0  0  0  0  0  0999 V2000
    1.1753    2.8395   -0.3886 C   0  0  0  0  0  0  0  0  0  0  0  0
    2.2898    1.7364   -0.0264 N   0  0  0  0  0  0  0  0  0  0  0  0
    3.7308    2.0033    0.2567 C   0  0  0  0  0  0  0  0  0  0  0  0
    4.4774    0.6821    0.3886 C   0  0  0  0  0  0  0  0  0  0  0  0
    3.4554   -0.4365    0.2037 C   0  0  0  0  0  0  0  0  0  0  0  0
    2.1097    0.2538    0.0002 C   0  0  0  0  0  0  0  0  0  0  0  0
    0.7277   -0.4621   -0.1501 N   0  0  0  0  0  0  0  0  0  0  0  0
   -0.4108    0.1247    0.3523 N   0  0  0  0  0  0  0  0  0  0  0  0
   -1.7787   -0.6261    0.2303 C   0  0  0  0  0  0  0  0  0  0  0  0
   -1.8407   -2.1240   -0.0612 C   0  0  0  0  0  0  0  0  0  0  0  0
   -3.1870   -2.8395   -0.1221 C   0  0  0  0  0  0  0  0  0  0  0  0
   -4.4774   -2.0497    0.0733 C   0  0  0  0  0  0  0  0  0  0  0  0
   -4.4226   -0.5405    0.2930 C   0  0  0  0  0  0  0  0  0  0  0  0
   -3.0733    0.1680    0.3811 C   0  0  0  0  0  0  0  0  0  0  0  0
  1  2  1  0      
  2  3  1  0      
  3  4  2  0      
  4  5  1  0      
  5  6  2  0      
  2  6  1  0      
  6  7  1  0      
  7  8  2  0      
  8  9  1  0      
  9 10  2  0      
 10 11  1  0      
 11 12  2  0      
 12 13  1  0      
 13 14  2  0      
  9 14  1  0      
M  END
