26

F         -4.91750       -0.80210        0.37770
C         -3.79100        0.22610        0.05690
C         -4.17840        1.62610       -0.45400
C         -3.04190        2.50540       -1.01080
C         -1.56370        2.05430       -0.94140
C         -1.19470        0.73860       -0.21860
C         -2.32800       -0.25980        0.09970
N         -2.11330       -1.82510        0.27540
N         -0.99750       -2.50540       -0.19110
C          0.45980       -1.89460       -0.13140
C          0.95330       -1.25730        1.18520
C          2.41690       -0.77910        1.29320
C          3.41590       -0.96020        0.12870
N          4.91750       -0.48760        0.30810
C          2.92670       -1.56160       -1.20480
C          1.46810       -2.06280       -1.29320
H         -5.15438        1.96022       -0.42487
H         -3.27202        3.41548       -1.43954
H         -0.82602        2.63014       -1.37644
H         -0.21791        0.53350        0.04379
H          0.31060       -1.15196        1.98574
H          2.73593       -0.32739        2.16452
H          5.21426       -0.10573        1.16562
H          5.55379       -0.57581       -0.43795
H          3.55844       -1.62755       -2.01817
H          1.15431       -2.52729       -2.15969
